NOVO24/1726530/Chaves.dss
! ==========================================================
! CHAVES — geradas de UNSEMT (Line com Switch=Y)
! ==========================================================
! 20 chave(s) omitida(s): os dois PACs fora da rede de MT deste alimentador, o que criaria ilha flutuante — ex.: 2600112244, 2600112151, 992915534
New Line.348740342 Phases=1 Bus1=node_2120613419.3 Bus2=node_2120613420.3 Switch=Y r1=1e-4 x1=1e-4 r0=1e-4 x0=1e-4 normamps=9999
New Line.1493569196 Phases=3 Bus1=node_1801217248.1.2.3 Bus2=node_1801217249.1.2.3 Switch=Y r1=1e-4 x1=1e-4 r0=1e-4 x0=1e-4 normamps=9999
New Line.1787420470 Phases=1 Bus1=node_2112291682.3 Bus2=node_2112291683.3 Switch=Y r1=1e-4 x1=1e-4 r0=1e-4 x0=1e-4 normamps=9999
New Line.1690174793 Phases=1 Bus1=node_2015970383.2 Bus2=node_2015970384.2 Switch=Y r1=1e-4 x1=1e-4 r0=1e-4 x0=1e-4 normamps=9999
New Line.2588673200 Phases=3 Bus1=100_2588673230.1.2.3 Bus2=100_2588673231.1.2.3 Switch=Y r1=1e-4 x1=1e-4 r0=1e-4 x0=1e-4 normamps=9999
New Line.2041283088 Phases=3 Bus1=100_2041283126.1.2.3 Bus2=100_2041283125.1.2.3 Switch=Y r1=1e-4 x1=1e-4 r0=1e-4 x0=1e-4 normamps=9999
New Line.2041283012 Phases=3 Bus1=100_2041283049.1.2.3 Bus2=100_2041283050.1.2.3 Switch=Y r1=1e-4 x1=1e-4 r0=1e-4 x0=1e-4 normamps=9999
New Line.2266270162 Phases=3 Bus1=node_2356599845.1.2.3 Bus2=node_2562770896.1.2.3 Switch=Y r1=1e-4 x1=1e-4 r0=1e-4 x0=1e-4 normamps=9999
New Line.2041283019 Phases=3 Bus1=100_2041283049.1.2.3 Bus2=100_2041283050.1.2.3 Switch=Y r1=1e-4 x1=1e-4 r0=1e-4 x0=1e-4 normamps=9999
New Line.1228651472 Phases=3 Bus1=100_2751429937.1.2.3 Bus2=100_2751429936.1.2.3 Switch=Y r1=1e-4 x1=1e-4 r0=1e-4 x0=1e-4 normamps=9999
New Line.337769890 Phases=3 Bus1=node_531750195.1.2.3 Bus2=node_531750196.1.2.3 Switch=Y r1=1e-4 x1=1e-4 r0=1e-4 x0=1e-4 normamps=9999
New Line.1228650978 Phases=3 Bus1=node_1525426726.1.2.3 Bus2=node_1525426725.1.2.3 Switch=Y r1=1e-4 x1=1e-4 r0=1e-4 x0=1e-4 normamps=9999
New Line.1228651297 Phases=3 Bus1=100_1228651302.1.2.3 Bus2=100_1228651303.1.2.3 Switch=Y r1=1e-4 x1=1e-4 r0=1e-4 x0=1e-4 normamps=9999
New Line.1377178327 Phases=1 Bus1=node_1674455481.1 Bus2=node_1674455482.1 Switch=Y r1=1e-4 x1=1e-4 r0=1e-4 x0=1e-4 normamps=9999
New Line.1381281507 Phases=1 Bus1=100_1381281525.2 Bus2=100_1381281526.2 Switch=Y r1=1e-4 x1=1e-4 r0=1e-4 x0=1e-4 normamps=9999
New Line.900318695 Phases=3 Bus1=node_1184117761.1.2.3 Bus2=node_1184117760.1.2.3 Switch=Y r1=1e-4 x1=1e-4 r0=1e-4 x0=1e-4 normamps=9999
New Line.1398980956 Phases=1 Bus1=node_1694043250.3 Bus2=node_1694043251.3 Switch=Y r1=1e-4 x1=1e-4 r0=1e-4 x0=1e-4 normamps=9999
New Line.1228651033 Phases=3 Bus1=node_1525426790.1.2.3 Bus2=node_1525426547.1.2.3 Switch=Y r1=1e-4 x1=1e-4 r0=1e-4 x0=1e-4 normamps=9999
New Line.1228652097 Phases=3 Bus1=node_1525428900.1.2.3 Bus2=node_1525428901.1.2.3 Switch=Y r1=1e-4 x1=1e-4 r0=1e-4 x0=1e-4 normamps=9999
New Line.340334407 Phases=3 Bus1=node_1526968717.1.2.3 Bus2=node_1526968716.1.2.3 Switch=Y r1=1e-4 x1=1e-4 r0=1e-4 x0=1e-4 normamps=9999
New Line.1435746331 Phases=1 Bus1=node_1732079802.3 Bus2=node_1732079803.3 Switch=Y r1=1e-4 x1=1e-4 r0=1e-4 x0=1e-4 normamps=9999
New Line.1433740920 Phases=1 Bus1=node_1730070008.1 Bus2=node_1730070009.1 Switch=Y r1=1e-4 x1=1e-4 r0=1e-4 x0=1e-4 normamps=9999
New Line.1348389076 Phases=1 Bus1=node_1642468016.1 Bus2=node_1642468017.1 Switch=Y r1=1e-4 x1=1e-4 r0=1e-4 x0=1e-4 normamps=9999
New Line.1437820197 Phases=1 Bus1=100_1437820216.2 Bus2=100_1437820215.2 Switch=Y r1=1e-4 x1=1e-4 r0=1e-4 x0=1e-4 normamps=9999
New Line.1354855820 Phases=1 Bus1=node_1648737268.1 Bus2=node_1648737269.1 Switch=Y r1=1e-4 x1=1e-4 r0=1e-4 x0=1e-4 normamps=9999
New Line.1376888349 Phases=1 Bus1=node_1671654398.2 Bus2=node_1671654399.2 Switch=Y r1=1e-4 x1=1e-4 r0=1e-4 x0=1e-4 normamps=9999
New Line.457620254 Phases=1 Bus1=node_1715556247.3 Bus2=node_1715556248.3 Switch=Y r1=1e-4 x1=1e-4 r0=1e-4 x0=1e-4 normamps=9999
New Line.1420961980 Phases=1 Bus1=node_1717638983.2 Bus2=node_1717638984.2 Switch=Y r1=1e-4 x1=1e-4 r0=1e-4 x0=1e-4 normamps=9999
New Line.1432547159 Phases=1 Bus1=node_1728850417.3 Bus2=node_1728850418.3 Switch=Y r1=1e-4 x1=1e-4 r0=1e-4 x0=1e-4 normamps=9999
New Line.340335170 Phases=1 Bus1=100_1493569193.1 Bus2=100_1493569192.1 Switch=Y r1=1e-4 x1=1e-4 r0=1e-4 x0=1e-4 normamps=9999
New Line.1371078608 Phases=1 Bus1=node_1665818904.3 Bus2=node_1665818905.3 Switch=Y r1=1e-4 x1=1e-4 r0=1e-4 x0=1e-4 normamps=9999
New Line.1504098048 Phases=1 Bus1=100_1504098068.2 Bus2=100_1504098067.2 Switch=Y r1=1e-4 x1=1e-4 r0=1e-4 x0=1e-4 normamps=9999
New Line.1444806538 Phases=1 Bus1=100_1444806558.2 Bus2=100_1444806559.2 Switch=Y r1=1e-4 x1=1e-4 r0=1e-4 x0=1e-4 normamps=9999
New Line.351565399 Phases=1 Bus1=100_351565413.3 Bus2=100_351565412.3 Switch=Y r1=1e-4 x1=1e-4 r0=1e-4 x0=1e-4 normamps=9999
New Line.1392458421 Phases=1 Bus1=node_1693055690.3 Bus2=node_1693055691.3 Switch=Y r1=1e-4 x1=1e-4 r0=1e-4 x0=1e-4 normamps=9999
New Line.1428618129 Phases=1 Bus1=100_1428618159.1 Bus2=100_1428618160.1 Switch=Y r1=1e-4 x1=1e-4 r0=1e-4 x0=1e-4 normamps=9999
New Line.1531811504 Phases=1 Bus1=node_1814017493.1 Bus2=node_1814017494.1 Switch=Y r1=1e-4 x1=1e-4 r0=1e-4 x0=1e-4 normamps=9999
New Line.351564911 Phases=1 Bus1=100_351564924.2 Bus2=100_351564925.2 Switch=Y r1=1e-4 x1=1e-4 r0=1e-4 x0=1e-4 normamps=9999
New Line.340872638 Phases=3 Bus1=node_534565451.1.2.3 Bus2=node_534565452.1.2.3 Switch=Y r1=1e-4 x1=1e-4 r0=1e-4 x0=1e-4 normamps=9999
New Line.1497618433 Phases=1 Bus1=100_1497618464.3 Bus2=100_1497618465.3 Switch=Y r1=1e-4 x1=1e-4 r0=1e-4 x0=1e-4 normamps=9999
New Line.351565119 Phases=1 Bus1=100_351565133.1 Bus2=100_351565132.1 Switch=Y r1=1e-4 x1=1e-4 r0=1e-4 x0=1e-4 normamps=9999
New Line.351565473 Phases=1 Bus1=100_351565486.2 Bus2=100_351565487.2 Switch=Y r1=1e-4 x1=1e-4 r0=1e-4 x0=1e-4 normamps=9999
New Line.2546896572 Phases=3 Bus1=100_2546896613.1.2.3 Bus2=100_2546896614.1.2.3 Switch=Y r1=1e-4 x1=1e-4 r0=1e-4 x0=1e-4 normamps=9999
New Line.2627254161 Phases=1 Bus1=node_2782521134.2 Bus2=node_2782521478.2 Switch=Y r1=1e-4 x1=1e-4 r0=1e-4 x0=1e-4 normamps=9999
New Line.348060992 Phases=1 Bus1=node_444138621.3 Bus2=node_1843964048.3 Switch=Y r1=1e-4 x1=1e-4 r0=1e-4 x0=1e-4 normamps=9999
New Line.340871358 Phases=3 Bus1=node_2708238813.1.2.3 Bus2=node_2708238996.1.2.3 Switch=Y r1=1e-4 x1=1e-4 r0=1e-4 x0=1e-4 normamps=9999
New Line.2546896579 Phases=3 Bus1=100_2546896613.1.2.3 Bus2=100_2546896614.1.2.3 Switch=Y r1=1e-4 x1=1e-4 r0=1e-4 x0=1e-4 normamps=9999
New Line.2627254164 Phases=1 Bus1=node_2782521064.2 Bus2=node_2782521488.2 Switch=Y r1=1e-4 x1=1e-4 r0=1e-4 x0=1e-4 normamps=9999
New Line.1611409383 Phases=3 Bus1=node_1931763252.1.2.3 Bus2=node_1931763253.1.2.3 Switch=Y r1=1e-4 x1=1e-4 r0=1e-4 x0=1e-4 normamps=9999
New Line.1539034521 Phases=1 Bus1=node_1858727026.2 Bus2=node_1858727027.2 Switch=Y r1=1e-4 x1=1e-4 r0=1e-4 x0=1e-4 normamps=9999
New Line.341963224 Phases=1 Bus1=node_535557523.3 Bus2=node_535557524.3 Switch=Y r1=1e-4 x1=1e-4 r0=1e-4 x0=1e-4 normamps=9999
New Line.341213598 Phases=3 Bus1=node_534953142.1.2.3 Bus2=node_534953143.1.2.3 Switch=Y r1=1e-4 x1=1e-4 r0=1e-4 x0=1e-4 normamps=9999
New Line.343338622 Phases=3 Bus1=node_537351977.1.2.3 Bus2=node_537351978.1.2.3 Switch=Y r1=1e-4 x1=1e-4 r0=1e-4 x0=1e-4 normamps=9999
New Line.343581677 Phases=3 Bus1=node_537604497.1.2.3 Bus2=node_537604498.1.2.3 Switch=Y r1=1e-4 x1=1e-4 r0=1e-4 x0=1e-4 normamps=9999
New Line.339807588 Phases=1 Bus1=node_533929967.1 Bus2=node_533929966.1 Switch=Y r1=1e-4 x1=1e-4 r0=1e-4 x0=1e-4 normamps=9999
New Line.341963627 Phases=1 Bus1=node_535558612.3 Bus2=node_535558613.3 Switch=Y r1=1e-4 x1=1e-4 r0=1e-4 x0=1e-4 normamps=9999
New Line.342455755 Phases=3 Bus1=node_536279496.1.2.3 Bus2=node_536279497.1.2.3 Switch=Y r1=1e-4 x1=1e-4 r0=1e-4 x0=1e-4 normamps=9999
New Line.342785257 Phases=3 Bus1=node_536825821.1.2.3 Bus2=node_536825822.1.2.3 Switch=Y r1=1e-4 x1=1e-4 r0=1e-4 x0=1e-4 normamps=9999
New Line.339808620 Phases=3 Bus1=node_533932656.1.2.3 Bus2=node_533932657.1.2.3 Switch=Y r1=1e-4 x1=1e-4 r0=1e-4 x0=1e-4 normamps=9999
New Line.341963214 Phases=3 Bus1=node_535557505.1.2.3 Bus2=node_535557506.1.2.3 Switch=Y r1=1e-4 x1=1e-4 r0=1e-4 x0=1e-4 normamps=9999
New Line.341213081 Phases=1 Bus1=node_534951789.3 Bus2=node_534951790.3 Switch=Y r1=1e-4 x1=1e-4 r0=1e-4 x0=1e-4 normamps=9999
New Line.342785240 Phases=3 Bus1=node_536825782.1.2.3 Bus2=node_536825783.1.2.3 Switch=Y r1=1e-4 x1=1e-4 r0=1e-4 x0=1e-4 normamps=9999
New Line.339213383 Phases=3 Bus1=node_533473932.1.2.3 Bus2=node_533473933.1.2.3 Switch=Y r1=1e-4 x1=1e-4 r0=1e-4 x0=1e-4 normamps=9999
New Line.339213371 Phases=3 Bus1=node_533473914.1.2.3 Bus2=node_533473915.1.2.3 Switch=Y r1=1e-4 x1=1e-4 r0=1e-4 x0=1e-4 normamps=9999
New Line.343337594 Phases=1 Bus1=node_537271949.2 Bus2=node_537271950.2 Switch=Y r1=1e-4 x1=1e-4 r0=1e-4 x0=1e-4 normamps=9999
New Line.342455973 Phases=1 Bus1=node_536280072.2 Bus2=node_536280073.2 Switch=Y r1=1e-4 x1=1e-4 r0=1e-4 x0=1e-4 normamps=9999
New Line.340870615 Phases=1 Bus1=node_534474288.3 Bus2=node_534474289.3 Switch=Y r1=1e-4 x1=1e-4 r0=1e-4 x0=1e-4 normamps=9999
New Line.342456216 Phases=1 Bus1=node_536280765.1 Bus2=node_536280766.1 Switch=Y r1=1e-4 x1=1e-4 r0=1e-4 x0=1e-4 normamps=9999
New Line.343337588 Phases=1 Bus1=node_537271931.3 Bus2=node_537271932.3 Switch=Y r1=1e-4 x1=1e-4 r0=1e-4 x0=1e-4 normamps=9999
New Line.339807170 Phases=1 Bus1=node_533791418.1 Bus2=node_533791419.1 Switch=Y r1=1e-4 x1=1e-4 r0=1e-4 x0=1e-4 normamps=9999
New Line.341963490 Phases=1 Bus1=node_535558225.3 Bus2=node_535558226.3 Switch=Y r1=1e-4 x1=1e-4 r0=1e-4 x0=1e-4 normamps=9999
New Line.342785509 Phases=1 Bus1=node_1782083028.3 Bus2=node_1782083029.3 Switch=Y r1=1e-4 x1=1e-4 r0=1e-4 x0=1e-4 normamps=9999
New Line.341213469 Phases=1 Bus1=node_534952791.1 Bus2=node_534952792.1 Switch=Y r1=1e-4 x1=1e-4 r0=1e-4 x0=1e-4 normamps=9999
New Line.343581712 Phases=3 Bus1=node_537686158.1.2.3 Bus2=node_537686159.1.2.3 Switch=Y r1=1e-4 x1=1e-4 r0=1e-4 x0=1e-4 normamps=9999
New Line.341213152 Phases=1 Bus1=node_534951978.2 Bus2=node_534951979.2 Switch=Y r1=1e-4 x1=1e-4 r0=1e-4 x0=1e-4 normamps=9999
New Line.341213076 Phases=1 Bus1=node_534951774.3 Bus2=node_534951775.3 Switch=Y r1=1e-4 x1=1e-4 r0=1e-4 x0=1e-4 normamps=9999
New Line.343581160 Phases=1 Bus1=node_537603078.1 Bus2=node_537603079.1 Switch=Y r1=1e-4 x1=1e-4 r0=1e-4 x0=1e-4 normamps=9999
New Line.343581285 Phases=1 Bus1=node_537603417.3 Bus2=node_537603418.3 Switch=Y r1=1e-4 x1=1e-4 r0=1e-4 x0=1e-4 normamps=9999
New Line.342785076 Phases=1 Bus1=node_536825336.1 Bus2=node_536825337.1 Switch=Y r1=1e-4 x1=1e-4 r0=1e-4 x0=1e-4 normamps=9999
New Line.340338112 Phases=1 Bus1=node_534375409.2 Bus2=node_534375410.2 Switch=Y r1=1e-4 x1=1e-4 r0=1e-4 x0=1e-4 normamps=9999
New Line.340870960 Phases=1 Bus1=node_534475223.2 Bus2=node_534475224.2 Switch=Y r1=1e-4 x1=1e-4 r0=1e-4 x0=1e-4 normamps=9999
New Line.341963230 Phases=1 Bus1=node_535557541.3 Bus2=node_535557542.3 Switch=Y r1=1e-4 x1=1e-4 r0=1e-4 x0=1e-4 normamps=9999
New Line.341213440 Phases=1 Bus1=node_534952734.3 Bus2=node_534952735.3 Switch=Y r1=1e-4 x1=1e-4 r0=1e-4 x0=1e-4 normamps=9999
New Line.342455743 Phases=1 Bus1=node_536279460.2 Bus2=node_536279461.2 Switch=Y r1=1e-4 x1=1e-4 r0=1e-4 x0=1e-4 normamps=9999
New Line.343581174 Phases=1 Bus1=node_537603120.1 Bus2=node_537603121.1 Switch=Y r1=1e-4 x1=1e-4 r0=1e-4 x0=1e-4 normamps=9999
New Line.341963594 Phases=1 Bus1=node_535558513.1 Bus2=node_535558514.1 Switch=Y r1=1e-4 x1=1e-4 r0=1e-4 x0=1e-4 normamps=9999
New Line.339807312 Phases=1 Bus1=node_533929174.3 Bus2=node_533929175.3 Switch=Y r1=1e-4 x1=1e-4 r0=1e-4 x0=1e-4 normamps=9999
New Line.339807829 Phases=1 Bus1=node_533930593.1 Bus2=node_533930594.1 Switch=Y r1=1e-4 x1=1e-4 r0=1e-4 x0=1e-4 normamps=9999
New Line.341963411 Phases=1 Bus1=node_535558012.2 Bus2=node_535558013.2 Switch=Y r1=1e-4 x1=1e-4 r0=1e-4 x0=1e-4 normamps=9999
New Line.340870677 Phases=1 Bus1=node_534474462.2 Bus2=node_534474463.2 Switch=Y r1=1e-4 x1=1e-4 r0=1e-4 x0=1e-4 normamps=9999
New Line.340870731 Phases=3 Bus1=node_534474612.1.2.3 Bus2=node_534474613.1.2.3 Switch=Y r1=1e-4 x1=1e-4 r0=1e-4 x0=1e-4 normamps=9999
New Line.341963358 Phases=3 Bus1=node_535557877.1.2.3 Bus2=node_535557878.1.2.3 Switch=Y r1=1e-4 x1=1e-4 r0=1e-4 x0=1e-4 normamps=9999
New Line.339807163 Phases=1 Bus1=node_533791397.1 Bus2=node_533791398.1 Switch=Y r1=1e-4 x1=1e-4 r0=1e-4 x0=1e-4 normamps=9999
New Line.343581309 Phases=1 Bus1=node_537603489.2 Bus2=node_537603490.2 Switch=Y r1=1e-4 x1=1e-4 r0=1e-4 x0=1e-4 normamps=9999
New Line.340870670 Phases=1 Bus1=node_534474441.2 Bus2=node_534474442.2 Switch=Y r1=1e-4 x1=1e-4 r0=1e-4 x0=1e-4 normamps=9999
New Line.341963772 Phases=1 Bus1=node_535559011.2 Bus2=node_535559012.2 Switch=Y r1=1e-4 x1=1e-4 r0=1e-4 x0=1e-4 normamps=9999
New Line.343337983 Phases=1 Bus1=node_537273058.1 Bus2=node_537273059.1 Switch=Y r1=1e-4 x1=1e-4 r0=1e-4 x0=1e-4 normamps=9999
New Line.343581316 Phases=1 Bus1=node_537603510.1 Bus2=node_537603511.1 Switch=Y r1=1e-4 x1=1e-4 r0=1e-4 x0=1e-4 normamps=9999
New Line.342455771 Phases=1 Bus1=node_536279532.1 Bus2=node_536279533.1 Switch=Y r1=1e-4 x1=1e-4 r0=1e-4 x0=1e-4 normamps=9999
New Line.343581215 Phases=1 Bus1=node_537603219.3 Bus2=node_537603220.3 Switch=Y r1=1e-4 x1=1e-4 r0=1e-4 x0=1e-4 normamps=9999
New Line.340871066 Phases=1 Bus1=node_534475493.2 Bus2=node_534475494.2 Switch=Y r1=1e-4 x1=1e-4 r0=1e-4 x0=1e-4 normamps=9999
New Line.342456000 Phases=1 Bus1=node_536280153.1 Bus2=node_536280154.1 Switch=Y r1=1e-4 x1=1e-4 r0=1e-4 x0=1e-4 normamps=9999
New Line.343581535 Phases=1 Bus1=node_537604143.3 Bus2=node_537604144.3 Switch=Y r1=1e-4 x1=1e-4 r0=1e-4 x0=1e-4 normamps=9999
New Line.343581303 Phases=1 Bus1=node_537603471.3 Bus2=node_537603472.3 Switch=Y r1=1e-4 x1=1e-4 r0=1e-4 x0=1e-4 normamps=9999
New Line.342455987 Phases=1 Bus1=node_536280114.3 Bus2=node_536280115.3 Switch=Y r1=1e-4 x1=1e-4 r0=1e-4 x0=1e-4 normamps=9999
New Line.342785659 Phases=1 Bus1=node_536826925.1 Bus2=node_536826926.1 Switch=Y r1=1e-4 x1=1e-4 r0=1e-4 x0=1e-4 normamps=9999
New Line.342455778 Phases=1 Bus1=node_536279553.1 Bus2=node_536279554.1 Switch=Y r1=1e-4 x1=1e-4 r0=1e-4 x0=1e-4 normamps=9999
New Line.342785311 Phases=1 Bus1=node_536825971.3 Bus2=node_536825972.3 Switch=Y r1=1e-4 x1=1e-4 r0=1e-4 x0=1e-4 normamps=9999
New Line.342785054 Phases=3 Bus1=node_536825282.1.2.3 Bus2=node_536825283.1.2.3 Switch=Y r1=1e-4 x1=1e-4 r0=1e-4 x0=1e-4 normamps=9999
New Line.342455947 Phases=1 Bus1=node_536279994.2 Bus2=node_536279995.2 Switch=Y r1=1e-4 x1=1e-4 r0=1e-4 x0=1e-4 normamps=9999
New Line.343337628 Phases=1 Bus1=node_537272051.2 Bus2=node_537272052.2 Switch=Y r1=1e-4 x1=1e-4 r0=1e-4 x0=1e-4 normamps=9999
New Line.341963720 Phases=1 Bus1=node_535558879.1 Bus2=node_535558880.1 Switch=Y r1=1e-4 x1=1e-4 r0=1e-4 x0=1e-4 normamps=9999
New Line.341963398 Phases=1 Bus1=node_535557973.2 Bus2=node_535557974.2 Switch=Y r1=1e-4 x1=1e-4 r0=1e-4 x0=1e-4 normamps=9999
New Line.339807266 Phases=1 Bus1=node_533929060.2 Bus2=node_533929061.2 Switch=Y r1=1e-4 x1=1e-4 r0=1e-4 x0=1e-4 normamps=9999
New Line.341213457 Phases=3 Bus1=node_534952773.1.2.3 Bus2=node_534952774.1.2.3 Switch=Y r1=1e-4 x1=1e-4 r0=1e-4 x0=1e-4 normamps=9999
New Line.2186775445 Phases=3 Bus1=node_2531407704.1.2.3 Bus2=node_2531407705.1.2.3 Switch=Y r1=1e-4 x1=1e-4 r0=1e-4 x0=1e-4 normamps=9999
New Line.342457753 Phases=3 Bus1=node_536422134.1.2.3 Bus2=node_536422133.1.2.3 Switch=Y r1=1e-4 x1=1e-4 r0=1e-4 x0=1e-4 normamps=9999
New Line.340871652 Phases=3 Bus1=node_534476971.1.2.3 Bus2=node_534476972.1.2.3 Switch=Y r1=1e-4 x1=1e-4 r0=1e-4 x0=1e-4 normamps=9999
New Line.339809935 Phases=3 Bus1=node_534090296.1.2.3 Bus2=node_534090295.1.2.3 Switch=Y r1=1e-4 x1=1e-4 r0=1e-4 x0=1e-4 normamps=9999
New Line.340871693 Phases=3 Bus1=node_534477070.1.2.3 Bus2=node_534477071.1.2.3 Switch=Y r1=1e-4 x1=1e-4 r0=1e-4 x0=1e-4 normamps=9999
New Line.343338740 Phases=3 Bus1=node_537352308.1.2.3 Bus2=node_537352307.1.2.3 Switch=Y r1=1e-4 x1=1e-4 r0=1e-4 x0=1e-4 normamps=9999
New Line.364710753 Phases=3 Bus1=node_561440580.1.2.3 Bus2=node_561440579.1.2.3 Switch=Y r1=1e-4 x1=1e-4 r0=1e-4 x0=1e-4 normamps=9999
New Line.340871920 Phases=3 Bus1=node_534477667.1.2.3 Bus2=node_534477668.1.2.3 Switch=Y r1=1e-4 x1=1e-4 r0=1e-4 x0=1e-4 normamps=9999
New Line.343073888 Phases=3 Bus1=node_536944138.1.2.3 Bus2=node_536944139.1.2.3 Switch=Y r1=1e-4 x1=1e-4 r0=1e-4 x0=1e-4 normamps=9999
New Line.343338566 Phases=3 Bus1=node_537351863.1.2.3 Bus2=node_537351864.1.2.3 Switch=Y r1=1e-4 x1=1e-4 r0=1e-4 x0=1e-4 normamps=9999
New Line.339214040 Phases=3 Bus1=node_533475203.1.2.3 Bus2=node_533475204.1.2.3 Switch=Y r1=1e-4 x1=1e-4 r0=1e-4 x0=1e-4 normamps=9999
New Line.340872361 Phases=3 Bus1=node_534564741.1.2.3 Bus2=node_534564740.1.2.3 Switch=Y r1=1e-4 x1=1e-4 r0=1e-4 x0=1e-4 normamps=9999
New Line.343074663 Phases=3 Bus1=node_536946281.1.2.3 Bus2=node_536946282.1.2.3 Switch=Y r1=1e-4 x1=1e-4 r0=1e-4 x0=1e-4 normamps=9999
New Line.341965175 Phases=3 Bus1=node_535760415.1.2.3 Bus2=node_535760416.1.2.3 Switch=Y r1=1e-4 x1=1e-4 r0=1e-4 x0=1e-4 normamps=9999
New Line.343074098 Phases=1 Bus1=node_536944720.2 Bus2=node_536944721.2 Switch=Y r1=1e-4 x1=1e-4 r0=1e-4 x0=1e-4 normamps=9999
New Line.339214897 Phases=3 Bus1=node_533476743.1.2.3 Bus2=node_533476742.1.2.3 Switch=Y r1=1e-4 x1=1e-4 r0=1e-4 x0=1e-4 normamps=9999
New Line.340872342 Phases=1 Bus1=node_534564684.2 Bus2=node_534564683.2 Switch=Y r1=1e-4 x1=1e-4 r0=1e-4 x0=1e-4 normamps=9999
New Line.339808581 Phases=3 Bus1=node_533932563.1.2.3 Bus2=node_533932564.1.2.3 Switch=Y r1=1e-4 x1=1e-4 r0=1e-4 x0=1e-4 normamps=9999
New Line.342457282 Phases=3 Bus1=node_536420915.1.2.3 Bus2=node_536420916.1.2.3 Switch=Y r1=1e-4 x1=1e-4 r0=1e-4 x0=1e-4 normamps=9999
New Line.1630178610 Phases=1 Bus1=node_1974081067.1 Bus2=node_1974081068.1 Switch=Y r1=1e-4 x1=1e-4 r0=1e-4 x0=1e-4 normamps=9999
New Line.1729610372 Phases=1 Bus1=node_2055645285.3 Bus2=node_2055645318.3 Switch=Y r1=1e-4 x1=1e-4 r0=1e-4 x0=1e-4 normamps=9999
New Line.1805631349 Phases=1 Bus1=node_2129223013.2 Bus2=node_2129223014.2 Switch=Y r1=1e-4 x1=1e-4 r0=1e-4 x0=1e-4 normamps=9999
New Line.1760595863 Phases=1 Bus1=node_2085982319.1 Bus2=node_2085982369.1 Switch=Y r1=1e-4 x1=1e-4 r0=1e-4 x0=1e-4 normamps=9999
New Line.1690286109 Phases=1 Bus1=node_2016098692.1 Bus2=node_2016098693.1 Switch=Y r1=1e-4 x1=1e-4 r0=1e-4 x0=1e-4 normamps=9999
New Line.339809018 Phases=1 Bus1=node_534088286.3 Bus2=node_534088287.3 Switch=Y r1=1e-4 x1=1e-4 r0=1e-4 x0=1e-4 normamps=9999
New Line.339808994 Phases=1 Bus1=node_534088226.2 Bus2=node_534088227.2 Switch=Y r1=1e-4 x1=1e-4 r0=1e-4 x0=1e-4 normamps=9999
New Line.341666577 Phases=3 Bus1=node_535078582.1.2.3 Bus2=node_535078581.1.2.3 Switch=Y r1=1e-4 x1=1e-4 r0=1e-4 x0=1e-4 normamps=9999
New Line.339808615 Phases=1 Bus1=node_533932641.3 Bus2=node_533932642.3 Switch=Y r1=1e-4 x1=1e-4 r0=1e-4 x0=1e-4 normamps=9999
New Line.340872577 Phases=3 Bus1=node_534565322.1.2.3 Bus2=node_534565323.1.2.3 Switch=Y r1=1e-4 x1=1e-4 r0=1e-4 x0=1e-4 normamps=9999
New Line.340873270 Phases=3 Bus1=node_534566691.1.2.3 Bus2=node_534566692.1.2.3 Switch=Y r1=1e-4 x1=1e-4 r0=1e-4 x0=1e-4 normamps=9999
New Line.340872559 Phases=3 Bus1=node_534565281.1.2.3 Bus2=node_534565280.1.2.3 Switch=Y r1=1e-4 x1=1e-4 r0=1e-4 x0=1e-4 normamps=9999
New Line.2206622370 Phases=1 Bus1=node_2512205276.1 Bus2=node_2512205277.1 Switch=Y r1=1e-4 x1=1e-4 r0=1e-4 x0=1e-4 normamps=9999
New Line.341964335 Phases=1 Bus1=node_535560512.2 Bus2=node_535560513.2 Switch=Y r1=1e-4 x1=1e-4 r0=1e-4 x0=1e-4 normamps=9999
New Line.342781474 Phases=3 Bus1=node_536554329.1.2.3 Bus2=node_536554328.1.2.3 Switch=Y r1=1e-4 x1=1e-4 r0=1e-4 x0=1e-4 normamps=9999
New Line.342458685 Phases=3 Bus1=node_536553030.1.2.3 Bus2=node_536553029.1.2.3 Switch=Y r1=1e-4 x1=1e-4 r0=1e-4 x0=1e-4 normamps=9999
New Line.340873665 Phases=3 Bus1=node_424398419.1.2.3 Bus2=node_1525428324.1.2.3 Switch=Y r1=1e-4 x1=1e-4 r0=1e-4 x0=1e-4 normamps=9999
New Line.341666769 Phases=3 Bus1=node_535078926.1.2.3 Bus2=node_535078927.1.2.3 Switch=Y r1=1e-4 x1=1e-4 r0=1e-4 x0=1e-4 normamps=9999
New Line.2206622337 Phases=1 Bus1=node_2636202539.1 Bus2=node_2636202540.1 Switch=Y r1=1e-4 x1=1e-4 r0=1e-4 x0=1e-4 normamps=9999
New Line.343447317 Phases=3 Bus1=node_537355420.1.2.3 Bus2=node_537355421.1.2.3 Switch=Y r1=1e-4 x1=1e-4 r0=1e-4 x0=1e-4 normamps=9999
New Line.452385827 Phases=1 Bus1=node_721714170.1 Bus2=node_721714169.1 Switch=Y r1=1e-4 x1=1e-4 r0=1e-4 x0=1e-4 normamps=9999
New Line.348346371 Phases=1 Bus1=node_544556984.2 Bus2=node_544556985.2 Switch=Y r1=1e-4 x1=1e-4 r0=1e-4 x0=1e-4 normamps=9999
New Line.431976736 Phases=1 Bus1=node_700641992.1 Bus2=node_700641993.1 Switch=Y r1=1e-4 x1=1e-4 r0=1e-4 x0=1e-4 normamps=9999
New Line.466045064 Phases=1 Bus1=node_735751324.2 Bus2=node_735751325.2 Switch=Y r1=1e-4 x1=1e-4 r0=1e-4 x0=1e-4 normamps=9999
New Line.431937833 Phases=1 Bus1=node_700592079.1 Bus2=node_700592080.1 Switch=Y r1=1e-4 x1=1e-4 r0=1e-4 x0=1e-4 normamps=9999
New Line.474650220 Phases=1 Bus1=node_744485273.1 Bus2=node_744485274.1 Switch=Y r1=1e-4 x1=1e-4 r0=1e-4 x0=1e-4 normamps=9999
New Line.426225739 Phases=3 Bus1=100_426225752.1.2.3 Bus2=100_426225753.1.2.3 Switch=Y r1=1e-4 x1=1e-4 r0=1e-4 x0=1e-4 normamps=9999
New Line.486360025 Phases=1 Bus1=node_756525927.1 Bus2=node_756525928.1 Switch=Y r1=1e-4 x1=1e-4 r0=1e-4 x0=1e-4 normamps=9999
New Line.634224227 Phases=3 Bus1=node_902032692.1.2.3 Bus2=node_902032693.1.2.3 Switch=Y r1=1e-4 x1=1e-4 r0=1e-4 x0=1e-4 normamps=9999
New Line.612590754 Phases=1 Bus1=node_888557571.2 Bus2=node_888557592.2 Switch=Y r1=1e-4 x1=1e-4 r0=1e-4 x0=1e-4 normamps=9999
New Line.556884594 Phases=1 Bus1=node_825912337.1 Bus2=node_825912338.1 Switch=Y r1=1e-4 x1=1e-4 r0=1e-4 x0=1e-4 normamps=9999
New Line.589274242 Phases=1 Bus1=node_857679379.1 Bus2=node_857679380.1 Switch=Y r1=1e-4 x1=1e-4 r0=1e-4 x0=1e-4 normamps=9999
New Line.573645614 Phases=3 Bus1=node_841708631.1.2.3 Bus2=node_841708632.1.2.3 Switch=Y r1=1e-4 x1=1e-4 r0=1e-4 x0=1e-4 normamps=9999
New Line.1721333028 Phases=3 Bus1=node_2047361674.1.2.3 Bus2=node_2047361675.1.2.3 Switch=Y r1=1e-4 x1=1e-4 r0=1e-4 x0=1e-4 normamps=9999
New Line.1721333324 Phases=3 Bus1=100_1721333370.1.2.3 Bus2=100_1721333371.1.2.3 Switch=Y r1=1e-4 x1=1e-4 r0=1e-4 x0=1e-4 normamps=9999
New Line.1721333449 Phases=3 Bus1=100_1721333538.1.2.3 Bus2=100_1721333539.1.2.3 Switch=Y r1=1e-4 x1=1e-4 r0=1e-4 x0=1e-4 normamps=9999
New Line.1721332809 Phases=3 Bus1=node_2047361186.1.2.3 Bus2=node_2047361187.1.2.3 Switch=Y r1=1e-4 x1=1e-4 r0=1e-4 x0=1e-4 normamps=9999
New Line.2211173873 Phases=1 Bus1=node_429802972.2 Bus2=node_2541082009.2 Switch=Y r1=1e-4 x1=1e-4 r0=1e-4 x0=1e-4 normamps=9999
New Line.2635173035 Phases=1 Bus1=node_2793343903.3 Bus2=node_2793343904.3 Switch=Y r1=1e-4 x1=1e-4 r0=1e-4 x0=1e-4 normamps=9999
New Line.2595633710 Phases=1 Bus1=node_2748784712.2 Bus2=node_2748784729.2 Switch=Y r1=1e-4 x1=1e-4 r0=1e-4 x0=1e-4 normamps=9999
New Line.2757366421 Phases=1 Bus1=node_2968824714.1 Bus2=node_2968824715.1 Switch=Y r1=1e-4 x1=1e-4 r0=1e-4 x0=1e-4 normamps=9999
New Line.348740040 Phases=1 Bus1=node_2851383836.2 Bus2=node_2851383837.2 Switch=Y r1=1e-4 x1=1e-4 r0=1e-4 x0=1e-4 normamps=9999
New Line.340870690 Phases=3 Bus1=node_429801563.1.2.3 Bus2=node_2961237086.1.2.3 Switch=Y r1=1e-4 x1=1e-4 r0=1e-4 x0=1e-4 normamps=9999
New Line.2604294441 Phases=3 Bus1=100_2604294479.1.2.3 Bus2=100_2604294478.1.2.3 Switch=Y r1=1e-4 x1=1e-4 r0=1e-4 x0=1e-4 normamps=9999
New Line.2578263939 Phases=3 Bus1=100_2578263969.1.2.3 Bus2=100_2578263970.1.2.3 Switch=Y r1=1e-4 x1=1e-4 r0=1e-4 x0=1e-4 normamps=9999
New Line.2676261337 Phases=1 Bus1=node_2849399810.2 Bus2=node_2849399811.2 Switch=Y r1=1e-4 x1=1e-4 r0=1e-4 x0=1e-4 normamps=9999
New Line.2578263932 Phases=3 Bus1=100_2578263969.1.2.3 Bus2=100_2578263970.1.2.3 Switch=Y r1=1e-4 x1=1e-4 r0=1e-4 x0=1e-4 normamps=9999
New Line.2606325771 Phases=1 Bus1=node_2767248237.1 Bus2=node_2767248238.1 Switch=Y r1=1e-4 x1=1e-4 r0=1e-4 x0=1e-4 normamps=9999
New Line.2604294448 Phases=3 Bus1=100_2604294479.1.2.3 Bus2=100_2604294478.1.2.3 Switch=Y r1=1e-4 x1=1e-4 r0=1e-4 x0=1e-4 normamps=9999
New Line.2681457917 Phases=3 Bus1=node_2855799604.1.2.3 Bus2=node_2855799605.1.2.3 Switch=Y r1=1e-4 x1=1e-4 r0=1e-4 x0=1e-4 normamps=9999
New Line.2677661255 Phases=1 Bus1=node_2851384475.2 Bus2=node_2851384476.2 Switch=Y r1=1e-4 x1=1e-4 r0=1e-4 x0=1e-4 normamps=9999
New Line.2561822447 Phases=3 Bus1=100_2561822469.1.2.3 Bus2=100_2561822470.1.2.3 Switch=Y r1=1e-4 x1=1e-4 r0=1e-4 x0=1e-4 normamps=9999
New Line.2677661319 Phases=1 Bus1=node_2851384102.2 Bus2=node_2851384103.2 Switch=Y r1=1e-4 x1=1e-4 r0=1e-4 x0=1e-4 normamps=9999
New Line.2606325357 Phases=1 Bus1=node_2767247637.1 Bus2=node_2767247638.1 Switch=Y r1=1e-4 x1=1e-4 r0=1e-4 x0=1e-4 normamps=9999
New Line.2540211451 Phases=1 Bus1=node_2787377501.3 Bus2=node_2701314809.3 Switch=Y r1=1e-4 x1=1e-4 r0=1e-4 x0=1e-4 normamps=9999
New Line.2335725656 Phases=1 Bus1=node_2482126273.1 Bus2=node_2482126274.1 Switch=Y r1=1e-4 x1=1e-4 r0=1e-4 x0=1e-4 normamps=9999
New Line.2251310049 Phases=1 Bus1=node_2525745420.1 Bus2=node_2525745421.1 Switch=Y r1=1e-4 x1=1e-4 r0=1e-4 x0=1e-4 normamps=9999
New Line.341965496 Phases=3 Bus1=node_535761090.1.2.3 Bus2=node_535761091.1.2.3 Switch=Y r1=1e-4 x1=1e-4 r0=1e-4 x0=1e-4 normamps=9999
New Line.341964135 Phases=3 Bus1=node_535560056.1.2.3 Bus2=node_535560057.1.2.3 Switch=Y r1=1e-4 x1=1e-4 r0=1e-4 x0=1e-4 normamps=9999
New Line.728030527 Phases=3 Bus1=node_1001992020.1.2.3 Bus2=node_1001992021.1.2.3 Switch=Y r1=1e-4 x1=1e-4 r0=1e-4 x0=1e-4 normamps=9999
New Line.337769900 Phases=3 Bus1=node_531750213.1.2.3 Bus2=node_531750214.1.2.3 Switch=Y r1=1e-4 x1=1e-4 r0=1e-4 x0=1e-4 normamps=9999
New Line.340871967 Phases=3 Bus1=node_534477796.1.2.3 Bus2=node_534477797.1.2.3 Switch=Y r1=1e-4 x1=1e-4 r0=1e-4 x0=1e-4 normamps=9999
New Line.343338859 Phases=1 Bus1=node_537352604.1 Bus2=node_537352605.1 Switch=Y r1=1e-4 x1=1e-4 r0=1e-4 x0=1e-4 normamps=9999
New Line.342456798 Phases=3 Bus1=node_536419623.1.2.3 Bus2=node_536419624.1.2.3 Switch=Y r1=1e-4 x1=1e-4 r0=1e-4 x0=1e-4 normamps=9999
New Line.351565034 Phases=3 Bus1=100_351565003.1.2.3 Bus2=100_351565024.1.2.3 Switch=Y r1=1e-4 x1=1e-4 r0=1e-4 x0=1e-4 normamps=9999
New Line.351565182 Phases=3 Bus1=100_351565172.1.2.3 Bus2=100_351565151.1.2.3 Switch=Y r1=1e-4 x1=1e-4 r0=1e-4 x0=1e-4 normamps=9999
...
